# tests/5-text_indentation.txt

=================================
Test cases for text_indentation
=================================

>>> text_indentation = __import__('5-text_indentation').text_indentation

# Valid text with punctuation characters
>>> text_indentation("Hello?")
Hello?

>>> text_indentation("   Hi there.")
Hi there.

>>> text_indentation("          ")

>>> text_indentation("Hello.   ")
Hello.

>>> text_indentation("    Woah now.    This is messy.   ")
Woah now.
This is messy.

# Valid text without punctuation characters
>>> text_indentation("No ending period, what bad grammar")
No ending period, what bad grammar

# Valid text with new lines
>>> text_indentation("Let's print a new-line! Here goes:\nPrinted.")
Let's print a new-line! Here goes:

Printed.

>>> text_indentation("\n\n\n We just printed three new lines.")

We just printed three new lines.

>>> text_indentation("A sneaky \n new line.")
A sneaky 
new line.

# Combo example
>>> text_indentation("Lorem ipsum dolor sit amet, consectetur adipiscing "
... "elit. Quonam modo? Utrum igitur tibi litteram videor an totas paginas "
... "commovere? Non autem hoc: igitur ne illud quidem. Fortasse id optimum, "
... "sed ubi illud: Plus semper voluptatis? Teneo, inquit, finem illi videri "
... "nihil dolere. Transfer idem ad modestiam vel temperantiam, quae est "
... "moderatio cupiditatum rationi oboediens. Si id dicis, vicimus. Inde "
... "sermone vario sex illa a Dipylo stadia confecimus. Sin aliud quid "
... "voles, postea. Quae animi affectio suum cuique tribuens atque hanc, "
... "quam dico. Utinam quidem dicerent alium alio beatiorem! Iam ruinas "
... "videres") # doctest: +NORMALIZE_WHITESPACE
Lorem ipsum dolor sit amet, consectetur adipiscing elit.

Quonam modo?

Utrum igitur tibi litteram videor an totas paginas commovere?

Non autem hoc:

igitur ne illud quidem.

Fortasse id optimum, sed ubi illud:

Plus semper voluptatis?

Teneo, inquit, finem illi videri nihil dolere.

Transfer idem ad modestiam vel temperantiam, 
quae est moderatio cupiditatum rationi oboediens.

Si id dicis, vicimus.

Inde sermone vario sex illa a Dipylo stadia confecimus.

Sin aliud quid voles, postea.

Quae animi affectio suum cuique tribuens atque hanc, quam dico.

Utinam quidem dicerent alium alio beatiorem! Iam ruinas videres

# Invalid text
>>> text_indentation(7)
Traceback (most recent call last):
    ...
TypeError: text must be a string

>>> text_indentation({"one": 1, "two": 2})
Traceback (most recent call last):
    ...
TypeError: text must be a string

>>> text_indentation(None)
Traceback (most recent call last):
    ...
TypeError: text must be a string
